LAMMPS (29 Aug 2024)

#Example fullerene + graphene

units                   real
atom_style              charge

read_data               ./runs/test_1/vel_0.1_temp_300/combined.data
Reading data file ...
  orthogonal box = (-14.674074 -12.705456 -50) to (15.015926 12.659909 100)
  reading atoms ...
  330 atoms

comm_style      brick
fix             bal all balance 1000 1.05 shift xyz 5 1.05

group C60 type 1
60 atoms in group C60
group graphene type 2
168 atoms in group graphene
group edges type 3
102 atoms in group edges

set group C60 type 1
Setting atom values ...
  60 settings made for type
set group edges type 1
Setting atom values ...
  102 settings made for type
set group graphene type 1
Setting atom values ...
  168 settings made for type

pair_style              reaxff NULL
pair_coeff              * * ffield_reax.cho2016 C C C
fix                     chg all qeq/reax 1 0.0 10.0 1.0e-6 reaxff

thermo_style    custom  step time temp pe ke etotal press vol
thermo          100

dump            1 all cfg 100 ./runs/test_1/vel_0.1_temp_300/all.*.cfg mass type xs ys zs
dump            2 all custom 100 ./runs/test_1/vel_0.1_temp_300/all.*.pos id type x y z vx vy vz

compute         coord all coord/atom cutoff 1.8
dump            3 graphene custom 100  ./runs/test_1/vel_0.1_temp_300/pos/graphene.*.pos id type x y z vx vy vz c_coord
dump            4 C60 custom 100  ./runs/test_1/vel_0.1_temp_300/pos/c60.*.pos id type x y z vx vy vz c_coord

fix relax graphene box/relax aniso 0.0
min_style       cg
minimize        1.0e-16 1.0e-8 15000 30000

CITE-CITE-CITE-CITE-CITE-CITE-CITE-CITE-CITE-CITE-CITE-CITE-CITE

Your simulation uses code contributions which should be cited:

- Type Label Framework: https://doi.org/10.1021/acs.jpcb.3c08419

@Article{Gissinger24,
 author = {Jacob R. Gissinger, Ilia Nikiforov, Yaser Afshar, Brendon Waters, Moon-ki Choi, Daniel S. Karls, Alexander Stukowski, Wonpil Im, Hendrik Heinz, Axel Kohlmeyer, and Ellad B. Tadmor},
 title = {Type Label Framework for Bonded Force Fields in LAMMPS},
 journal = {J. Phys. Chem. B},
 year =    2024,
 volume =  128,
 number =  13,
 pages =   {3282â€“-3297}
}

- pair reaxff command: doi:10.1016/j.parco.2011.08.005

@Article{Aktulga12,
 author = {H. M. Aktulga and J. C. Fogarty and S. A. Pandit and A. Y. Grama},
 title = {Parallel Reactive Molecular Dynamics: {N}umerical Methods and Algorithmic Techniques},
 journal = {Parallel Computing},
 year =    2012,
 volume =  38,
 number =  {4--5},
 pages =   {245--259}
}

- fix qeq/reaxff command: doi:10.1016/j.parco.2011.08.005

@Article{Aktulga12,
 author = {H. M. Aktulga and J. C. Fogarty and S. A. Pandit and A. Y. Grama},
 title = {Parallel Reactive Molecular Dynamics: {N}umerical Methods and Algorithmic Techniques},
 journal = {Parallel Computing},
 year =    2012,
 volume =  38,
 pages =   {245--259}
}

CITE-CITE-CITE-CITE-CITE-CITE-CITE-CITE-CITE-CITE-CITE-CITE-CITE

 (../min.cpp:219)
Step          Time           Temp          PotEng         KinEng         TotEng    g         Press          Volume
Loop time of 23.7849 on 1 procs for 1111 steps with 330 atoms

Minimization stats:
  Stopping criterion = linesearch alpha is zero
  Energy initial, next-to-last, final =
  Force two-norm initial, final = 2046.8003 109.18882
  Force max component initial, final = 1476.3855 39.337589
  Final line search alpha, max atom move = 7.6626967e-13 3.0143201e-11
  Iterations, force evaluations = 1111 1389

timestep        0.1

fix 01 edges setforce 0 0 0

# Run 1 - NVT ensemble
fix 1 all nvt temp 10 300 10
run             1000
Step          Time           Temp          PotEng         KinEng         TotEng         Press          Volume
1111   1111           0             -53242.246      0             -53242.246      6.6389455      113324.5
Averages over the last 6 of 12 rows, steps 1700 to 2111:
Temp PotEng KinEng TotEng Press Volume
15.3113 -53227 15.0156 -53212 60.4118 113324
Loop time of 15.6282 on 1 procs for 1000 steps with 330 atoms

unfi
unfix    1
fix    2 all nvt temp 300 300 10
run    1000
Step          Time           Temp          PotEng         KinEng         TotEng         Press          Volume
2111   1211           22.812452     -53211.824      22.371864     -53189.452      186.9604       113324.5
Averages over the last 6 of 12 rows, steps 2700 to 3111:
Temp PotEng KinEng TotEng Press Volume
239.01 -53015.3 234.394 -52780.9 263.841 113324
Loop time of 16.6329 on 1 procs for 1000 steps with 330 atoms

unfi
unfix    2
fix    3 all nve

timestep    0.1
velocity C60 set 0. 0. 0.02
run    2000
Step          Time           Temp          PotEng         KinEng         TotEng         Press          Volume
3111   1311           566.25609     -52889.372      555.3197      -52334.052      304.0664       113324.5
Averages over the last 6 of 12 rows, steps 3700 to 4200:
Temp PotEng KinEng TotEng Press Volume
678.139 -52998.9 665.041 -52333.9 467.8 113324
      4300   1429
timestep    0.002
run    50000
Step          Time           Temp          PotEng         KinEng         TotEng         Press          Volume
3191   1319           219752.71     -52890.103      215508.52      162618.41      87121.677      113
timestep    0.01
run    50000
Step          Time           Temp          PotEng         KinEng         TotEng         Press          Volume
3511   1351           9049.4416     -52941.118      8874.6653     -44066.452      3900.671       113324.5
timestep    0.02
run    50000
Step          Time           Temp          PotEng         KinEng         TotEng         Press          Volume
3911   1391           2513.41       -52990.263      2464.8673     -50525.396      1132.9771      113324.5
timestep    0.05
run    50000
Step          Time           Temp          PotEng         KinEng         TotEng         Press          Volume
5111   1511           696.69502     -53017.109      683.2394      -52333.87       407.32241      113324.5
      6200   1565.45        568.61716     -52891.512      557.63518     -52333.877      412.67093324.5
Loop time of 783.441 on 1 procs for 50000 steps with 330 atoms

 ave         330 max         330 min

  330 ave         330 max         330 min

Loop time of 719.078 on 1 procs for 50000 steps with 330 atoms
